Version 4
SHEET 1 2528 868
WIRE 672 -336 624 -336
WIRE 960 -336 912 -336
WIRE 1248 -336 1200 -336
WIRE 624 -288 624 -336
WIRE 912 -288 912 -336
WIRE 1200 -288 1200 -336
WIRE 672 -240 672 -256
WIRE 960 -240 960 -256
WIRE 1248 -240 1248 -256
WIRE 576 -192 576 -224
WIRE 864 -192 864 -224
WIRE 1152 -192 1152 -224
WIRE 464 -48 432 -48
WIRE 752 -48 720 -48
WIRE 1040 -48 1008 -48
WIRE 432 -32 432 -48
WIRE 720 -32 720 -48
WIRE 1008 -32 1008 -48
WIRE 576 16 576 -192
WIRE 864 16 864 -192
WIRE 1152 16 1152 -192
WIRE -128 80 -192 80
WIRE 432 80 432 16
WIRE 432 80 -128 80
WIRE 720 80 720 16
WIRE 720 80 432 80
WIRE 1008 80 1008 16
WIRE 1008 80 720 80
WIRE -192 224 -192 80
WIRE 464 224 432 224
WIRE 752 224 720 224
WIRE 1040 224 1008 224
WIRE 432 240 432 224
WIRE 720 240 720 224
WIRE 1008 240 1008 224
WIRE 576 288 576 16
WIRE 864 288 864 16
WIRE 1152 288 1152 16
WIRE -192 320 -192 304
WIRE -64 352 -128 352
WIRE 432 352 432 288
WIRE 432 352 -64 352
WIRE 720 352 720 288
WIRE 720 352 432 352
WIRE 1008 352 1008 288
WIRE 1008 352 720 352
WIRE 464 480 432 480
WIRE 752 480 720 480
WIRE 1040 480 1008 480
WIRE -128 496 -128 352
WIRE 432 496 432 480
WIRE 720 496 720 480
WIRE 1008 496 1008 480
WIRE 576 544 576 288
WIRE 864 544 864 288
WIRE 1152 544 1152 288
WIRE -128 592 -128 576
WIRE 0 608 -64 608
WIRE 432 608 432 544
WIRE 432 608 0 608
WIRE 720 608 720 544
WIRE 720 608 432 608
WIRE 1008 608 1008 544
WIRE 1008 608 720 608
WIRE -64 752 -64 608
WIRE -64 848 -64 832
FLAG -192 320 0
FLAG 672 -240 0
FLAG -128 80 Read0
FLAG 576 -192 A_Out0
FLAG 624 -336 Vcon0
FLAG 432 -32 0
FLAG 960 -240 0
FLAG 864 -192 A_Out1
FLAG 912 -336 Vcon1
FLAG 720 -32 0
FLAG 1248 -240 0
FLAG 1152 -192 A_Out2
FLAG 1200 -336 Vcon2
FLAG 1008 -32 0
FLAG 432 240 0
FLAG 720 240 0
FLAG 1008 240 0
FLAG 432 496 0
FLAG 720 496 0
FLAG 1008 496 0
FLAG -128 592 0
FLAG -64 352 Read1
FLAG -64 848 0
FLAG 0 608 Read2
SYMBOL res -208 208 R0
SYMATTR InstName Rload0
SYMATTR Value 100k
SYMBOL mysymbols\\Arduino_Output 592 -320 R180
SYMATTR InstName U0
SYMBOL voltage 672 -352 R0
WINDOW 123 0 0 Left 2
WINDOW 39 0 0 Left 2
SYMATTR InstName Vcon0
SYMATTR Value {Vcon0}
SYMBOL diode 496 32 M270
WINDOW 0 32 32 VTop 2
WINDOW 3 0 32 VBottom 2
SYMATTR InstName D0
SYMBOL voltage 560 -48 M270
WINDOW 123 0 0 Left 2
WINDOW 39 0 0 Left 2
SYMATTR InstName Vl0
SYMATTR Value {lux0_0}
SYMBOL mysymbols\\Arduino_Output 880 -320 R180
SYMATTR InstName U1
SYMBOL voltage 960 -352 R0
WINDOW 123 0 0 Left 2
WINDOW 39 0 0 Left 2
SYMATTR InstName Vcon1
SYMATTR Value {Vcon1}
SYMBOL diode 784 32 M270
WINDOW 0 32 32 VTop 2
WINDOW 3 0 32 VBottom 2
SYMATTR InstName D1
SYMBOL voltage 848 -48 M270
WINDOW 123 0 0 Left 2
WINDOW 39 0 0 Left 2
SYMATTR InstName Vl1
SYMATTR Value {lux1_0}
SYMBOL mysymbols\\Arduino_Output 1168 -320 R180
SYMATTR InstName U2
SYMBOL voltage 1248 -352 R0
WINDOW 123 0 0 Left 2
WINDOW 39 0 0 Left 2
SYMATTR InstName Vcon2
SYMATTR Value {Vcon2}
SYMBOL diode 1072 32 M270
WINDOW 0 32 32 VTop 2
WINDOW 3 0 32 VBottom 2
SYMATTR InstName D2
SYMBOL voltage 1136 -48 M270
WINDOW 123 0 0 Left 2
WINDOW 39 0 0 Left 2
SYMATTR InstName Vl2
SYMATTR Value {lux2_0}
SYMBOL photoresistor 592 0 R90
SYMATTR InstName X0
SYMBOL photoresistor 880 0 R90
SYMATTR InstName X1
SYMBOL photoresistor 1168 0 R90
SYMATTR InstName X2
SYMBOL diode 496 304 M270
WINDOW 0 32 32 VTop 2
WINDOW 3 0 32 VBottom 2
SYMATTR InstName D3
SYMBOL voltage 560 224 M270
WINDOW 123 0 0 Left 2
WINDOW 39 0 0 Left 2
SYMATTR InstName Vl3
SYMATTR Value {lux0_1}
SYMBOL diode 784 304 M270
WINDOW 0 32 32 VTop 2
WINDOW 3 0 32 VBottom 2
SYMATTR InstName D4
SYMBOL voltage 848 224 M270
WINDOW 123 0 0 Left 2
WINDOW 39 0 0 Left 2
SYMATTR InstName Vl4
SYMATTR Value {lux1_1}
SYMBOL diode 1072 304 M270
WINDOW 0 32 32 VTop 2
WINDOW 3 0 32 VBottom 2
SYMATTR InstName D5
SYMBOL voltage 1136 224 M270
WINDOW 123 0 0 Left 2
WINDOW 39 0 0 Left 2
SYMATTR InstName Vl5
SYMATTR Value {lux2_1}
SYMBOL photoresistor 592 272 R90
SYMATTR InstName X3
SYMBOL photoresistor 880 272 R90
SYMATTR InstName X4
SYMBOL photoresistor 1168 272 R90
SYMATTR InstName X5
SYMBOL diode 496 560 M270
WINDOW 0 32 32 VTop 2
WINDOW 3 0 32 VBottom 2
SYMATTR InstName D6
SYMBOL voltage 560 480 M270
WINDOW 123 0 0 Left 2
WINDOW 39 0 0 Left 2
SYMATTR InstName Vl6
SYMATTR Value {lux0_2}
SYMBOL diode 784 560 M270
WINDOW 0 32 32 VTop 2
WINDOW 3 0 32 VBottom 2
SYMATTR InstName D7
SYMBOL voltage 848 480 M270
WINDOW 123 0 0 Left 2
WINDOW 39 0 0 Left 2
SYMATTR InstName Vl7
SYMATTR Value {lux1_2}
SYMBOL diode 1072 560 M270
WINDOW 0 32 32 VTop 2
WINDOW 3 0 32 VBottom 2
SYMATTR InstName D8
SYMBOL voltage 1136 480 M270
WINDOW 123 0 0 Left 2
WINDOW 39 0 0 Left 2
SYMATTR InstName Vl8
SYMATTR Value {lux2_2}
SYMBOL photoresistor 592 528 R90
SYMATTR InstName X6
SYMBOL photoresistor 880 528 R90
SYMATTR InstName X7
SYMBOL photoresistor 1168 528 R90
SYMATTR InstName X8
SYMBOL res -144 480 R0
SYMATTR InstName Rload1
SYMATTR Value 100k
SYMBOL res -80 736 R0
SYMATTR InstName Rload2
SYMATTR Value 100k
TEXT -400 -552 Left 2 !.include C:\\Program Files\\LTC\\LTspiceIV\\lib\\sub\\Arduino_Output.sub
TEXT -408 -512 Left 2 !.op
TEXT -408 -472 Left 2 !*********************************** Lux Parameters***********************************\n.param\n+lux0_0=0 lux1_0=0 lux2_0=100\n+lux0_1=0 lux1_1=0 lux2_1=100\n+lux0_2=0 lux1_2=0 lux2_2=100\n*********************************** End Lux Parameters*****************************
TEXT -400 -592 Left 2 !.param Rdark=1MEG Rlight=1
TEXT 816 -560 Left 2 !****************************** Voltage Parameters*******************************\n.param\n+vcon0=5 vcon1=-5 vcon2=-5 \n*************************** End Voltage Parameters***************************
