Version 4
SHEET 1 2528 868
WIRE 576 16 576 -192
WIRE 864 16 864 -192
WIRE 1152 16 1152 -192
WIRE -128 80 -192 80
WIRE 432 80 432 16
WIRE 432 80 -128 80
WIRE 720 80 720 16
WIRE 720 80 432 80
WIRE 1008 80 1008 16
WIRE 1008 80 720 80
WIRE -192 224 -192 80
WIRE 576 288 576 16
WIRE 864 288 864 16
WIRE 1152 288 1152 16
WIRE -192 320 -192 304
WIRE -64 352 -128 352
WIRE 432 352 432 288
WIRE 432 352 -64 352
WIRE 720 352 720 288
WIRE 720 352 432 352
WIRE 1008 352 1008 288
WIRE 1008 352 720 352
WIRE 576 480 576 288
WIRE 864 480 864 288
WIRE 1152 480 1152 288
WIRE -128 496 -128 352
WIRE -128 592 -128 576
WIRE 0 608 -64 608
WIRE 432 608 432 480
WIRE 432 608 0 608
WIRE 720 608 720 480
WIRE 720 608 432 608
WIRE 1008 608 1008 480
WIRE 1008 608 720 608
WIRE -64 752 -64 608
WIRE -64 848 -64 832
FLAG -192 320 0
FLAG -128 80 Read0
FLAG -128 592 0
FLAG -64 352 Read1
FLAG -64 848 0
FLAG 0 608 Read2
FLAG 576 -192 Vcon0
FLAG 864 -192 Vcon1
FLAG 1152 -192 Vcon2
SYMBOL res -208 208 R0
SYMATTR InstName Rload0
SYMATTR Value 100k
SYMBOL diode 496 32 M270
WINDOW 0 32 32 VTop 2
WINDOW 3 0 32 VBottom 2
SYMATTR InstName D0
SYMBOL diode 784 32 M270
WINDOW 0 32 32 VTop 2
WINDOW 3 0 32 VBottom 2
SYMATTR InstName D1
SYMBOL diode 1072 32 M270
WINDOW 0 32 32 VTop 2
WINDOW 3 0 32 VBottom 2
SYMATTR InstName D2
SYMBOL res -144 480 R0
SYMATTR InstName Rload1
SYMATTR Value 100k
SYMBOL res -80 736 R0
SYMATTR InstName Rload2
SYMATTR Value 100k
SYMBOL res 592 0 R90
WINDOW 0 0 56 VBottom 2
WINDOW 3 32 56 VTop 2
SYMATTR InstName R00
SYMBOL res 880 0 R90
WINDOW 0 0 56 VBottom 2
WINDOW 3 32 56 VTop 2
SYMATTR InstName R10
SYMBOL res 1168 0 R90
WINDOW 0 0 56 VBottom 2
WINDOW 3 32 56 VTop 2
SYMATTR InstName R20
SYMBOL diode 496 304 M270
WINDOW 0 32 32 VTop 2
WINDOW 3 0 32 VBottom 2
SYMATTR InstName D3
SYMBOL diode 784 304 M270
WINDOW 0 32 32 VTop 2
WINDOW 3 0 32 VBottom 2
SYMATTR InstName D4
SYMBOL diode 1072 304 M270
WINDOW 0 32 32 VTop 2
WINDOW 3 0 32 VBottom 2
SYMATTR InstName D5
SYMBOL res 592 272 R90
WINDOW 0 0 56 VBottom 2
WINDOW 3 32 56 VTop 2
SYMATTR InstName R01
SYMBOL res 880 272 R90
WINDOW 0 0 56 VBottom 2
WINDOW 3 32 56 VTop 2
SYMATTR InstName R11
SYMBOL res 1168 272 R90
WINDOW 0 0 56 VBottom 2
WINDOW 3 32 56 VTop 2
SYMATTR InstName R21
SYMBOL diode 496 496 M270
WINDOW 0 32 32 VTop 2
WINDOW 3 0 32 VBottom 2
SYMATTR InstName D6
SYMBOL diode 784 496 M270
WINDOW 0 32 32 VTop 2
WINDOW 3 0 32 VBottom 2
SYMATTR InstName D7
SYMBOL diode 1072 496 M270
WINDOW 0 32 32 VTop 2
WINDOW 3 0 32 VBottom 2
SYMATTR InstName D8
SYMBOL res 592 464 R90
WINDOW 0 0 56 VBottom 2
WINDOW 3 32 56 VTop 2
SYMATTR InstName R02
SYMBOL res 880 464 R90
WINDOW 0 0 56 VBottom 2
WINDOW 3 32 56 VTop 2
SYMATTR InstName R12
SYMBOL res 1168 464 R90
WINDOW 0 0 56 VBottom 2
WINDOW 3 32 56 VTop 2
SYMATTR InstName R22
TEXT -400 -552 Left 2 !.include C:\\Program Files\\LTC\\LTspiceIV\\lib\\sub\\Arduino_Output.sub
TEXT -408 -512 Left 2 !.op
TEXT -408 -472 Left 2 !*********************************** Lux Parameters***********************************\n.param\n+lux0_0=0 lux1_0=0 lux2_0=100\n+lux0_1=0 lux1_1=0 lux2_1=100\n+lux0_2=0 lux1_2=0 lux2_2=100\n*********************************** End Lux Parameters*****************************
TEXT -400 -592 Left 2 !.param Rdark=1MEG Rlight=1
