Version 4
SHEET 1 1280 680
WIRE 672 -160 624 -160
WIRE 912 -160 864 -160
WIRE 1152 -160 1104 -160
WIRE 624 -112 624 -160
WIRE 864 -112 864 -160
WIRE 1104 -112 1104 -160
WIRE 672 -64 672 -80
WIRE 912 -64 912 -80
WIRE 1152 -64 1152 -80
WIRE 576 -32 576 -48
WIRE 816 -32 816 -48
WIRE 1056 -32 1056 -48
WIRE 496 16 480 16
WIRE 576 16 576 -32
WIRE 736 16 720 16
WIRE 816 16 816 -32
WIRE 976 16 960 16
WIRE 1056 16 1056 -32
WIRE -128 80 -192 80
WIRE 416 80 416 16
WIRE 416 80 -128 80
WIRE 656 80 656 16
WIRE 656 80 416 80
WIRE 896 80 896 16
WIRE 896 80 656 80
WIRE 496 128 480 128
WIRE 576 128 576 16
WIRE 736 128 720 128
WIRE 816 128 816 16
WIRE 976 128 960 128
WIRE 1056 128 1056 16
WIRE -48 192 -64 192
WIRE 416 192 416 128
WIRE 416 192 -48 192
WIRE 656 192 656 128
WIRE 656 192 416 192
WIRE 896 192 896 128
WIRE 896 192 656 192
WIRE -192 224 -192 80
WIRE 496 240 480 240
WIRE 576 240 576 128
WIRE 736 240 720 240
WIRE 816 240 816 128
WIRE 976 240 960 240
WIRE 1056 240 1056 128
WIRE -64 288 -64 192
WIRE 80 304 64 304
WIRE 416 304 416 240
WIRE 416 304 80 304
WIRE 656 304 656 240
WIRE 656 304 416 304
WIRE 896 304 896 240
WIRE 896 304 656 304
WIRE -192 320 -192 304
WIRE -64 384 -64 368
WIRE 64 400 64 304
WIRE 64 496 64 480
FLAG -64 384 0
FLAG -192 320 0
FLAG 912 -64 0
FLAG 672 -64 0
FLAG -128 80 Read0
FLAG -48 192 Read1
FLAG 576 -32 A_Out0
FLAG 816 -32 A_Out1
FLAG 624 -160 Vcon0
FLAG 864 -160 Vcon1
FLAG 1152 -64 0
FLAG 1056 -32 A_Out2
FLAG 1104 -160 Vcon2
FLAG 64 496 0
FLAG 80 304 Read2
SYMBOL res 592 0 R90
WINDOW 0 0 56 VBottom 2
WINDOW 3 32 56 VTop 2
SYMATTR InstName R1
SYMATTR Value {R0_0}
SYMBOL diode 480 0 R90
WINDOW 0 0 32 VBottom 2
WINDOW 3 32 32 VTop 2
SYMATTR InstName D1
SYMBOL res 832 0 R90
WINDOW 0 0 56 VBottom 2
WINDOW 3 32 56 VTop 2
SYMATTR InstName R2
SYMATTR Value {R1_0}
SYMBOL diode 720 0 R90
WINDOW 0 0 32 VBottom 2
WINDOW 3 32 32 VTop 2
SYMATTR InstName D2
SYMBOL res 592 112 R90
WINDOW 0 0 56 VBottom 2
WINDOW 3 32 56 VTop 2
SYMATTR InstName R3
SYMATTR Value {R0_1}
SYMBOL diode 480 112 R90
WINDOW 0 0 32 VBottom 2
WINDOW 3 32 32 VTop 2
SYMATTR InstName D3
SYMBOL res 832 112 R90
WINDOW 0 0 56 VBottom 2
WINDOW 3 32 56 VTop 2
SYMATTR InstName R4
SYMATTR Value {R1_1}
SYMBOL diode 720 112 R90
WINDOW 0 0 32 VBottom 2
WINDOW 3 32 32 VTop 2
SYMATTR InstName D4
SYMBOL res -80 272 R0
SYMATTR InstName Rload1
SYMATTR Value 10k
SYMBOL res -208 208 R0
SYMATTR InstName Rload0
SYMATTR Value 10k
SYMBOL mysymbols\\Arduino_Output 832 -144 R180
SYMATTR InstName U1
SYMBOL mysymbols\\Arduino_Output 592 -144 R180
SYMATTR InstName U0
SYMBOL voltage 912 -176 R0
WINDOW 123 0 0 Left 2
WINDOW 39 0 0 Left 2
SYMATTR InstName Vcon1
SYMATTR Value {Vcon1}
SYMBOL voltage 672 -176 R0
WINDOW 123 0 0 Left 2
WINDOW 39 0 0 Left 2
SYMATTR InstName Vcon0
SYMATTR Value {Vcon0}
SYMBOL res 1072 0 R90
WINDOW 0 0 56 VBottom 2
WINDOW 3 32 56 VTop 2
SYMATTR InstName R5
SYMATTR Value {R2_0}
SYMBOL diode 960 0 R90
WINDOW 0 0 32 VBottom 2
WINDOW 3 32 32 VTop 2
SYMATTR InstName D5
SYMBOL res 1072 112 R90
WINDOW 0 0 56 VBottom 2
WINDOW 3 32 56 VTop 2
SYMATTR InstName R6
SYMATTR Value {R2_1}
SYMBOL diode 960 112 R90
WINDOW 0 0 32 VBottom 2
WINDOW 3 32 32 VTop 2
SYMATTR InstName D6
SYMBOL mysymbols\\Arduino_Output 1072 -144 R180
SYMATTR InstName U2
SYMBOL voltage 1152 -176 R0
WINDOW 123 0 0 Left 2
WINDOW 39 0 0 Left 2
SYMATTR InstName Vcon2
SYMATTR Value {Vcon2}
SYMBOL res 48 384 R0
SYMATTR InstName Rload2
SYMATTR Value 10k
SYMBOL res 592 224 R90
WINDOW 0 0 56 VBottom 2
WINDOW 3 32 56 VTop 2
SYMATTR InstName R7
SYMATTR Value {R0_2}
SYMBOL diode 480 224 R90
WINDOW 0 0 32 VBottom 2
WINDOW 3 32 32 VTop 2
SYMATTR InstName D7
SYMBOL res 832 224 R90
WINDOW 0 0 56 VBottom 2
WINDOW 3 32 56 VTop 2
SYMATTR InstName R8
SYMATTR Value {R1_2}
SYMBOL diode 720 224 R90
WINDOW 0 0 32 VBottom 2
WINDOW 3 32 32 VTop 2
SYMATTR InstName D8
SYMBOL res 1072 224 R90
WINDOW 0 0 56 VBottom 2
WINDOW 3 32 56 VTop 2
SYMATTR InstName R9
SYMATTR Value {R2_2}
SYMBOL diode 960 224 R90
WINDOW 0 0 32 VBottom 2
WINDOW 3 32 32 VTop 2
SYMATTR InstName D9
TEXT -192 -408 Left 2 !.include C:\\Program Files\\LTC\\LTspiceIV\\lib\\sub\\Arduino_Output.sub
TEXT -192 -368 Left 2 !.op
TEXT -192 -320 Left 2 !*************************** Resistance Parameters*******************\n.param\n+R0_0={Rlight} R1_0={Rdark} R2_0={Rdark}\n+R0_1={Rdark} R1_1={Rlight} R2_1={Rdark}\n+R0_2={Rdark} R1_2={Rlight} R2_2={Rdark}\n*************************** End Resistance Parameters*************
TEXT -192 -448 Left 2 !.param Rdark=1MEG Rlight=1
TEXT -192 -152 Left 2 !*************************** Voltage Parameters*******************\n.param\n+vcon0=-5 vcon1=5 vcon2=-5\n*************************** End Voltage Parameters*************
