Version 4
SHEET 1 920 680
WIRE -48 -48 -160 -48
WIRE -160 80 -160 32
WIRE -48 80 -48 -48
WIRE -352 96 -416 96
WIRE -304 96 -352 96
WIRE -160 96 -160 80
WIRE -416 128 -416 96
WIRE -304 128 -304 96
WIRE -224 128 -304 128
WIRE -208 128 -224 128
WIRE -48 176 -48 160
WIRE -48 176 -160 176
WIRE -48 192 -48 176
WIRE -416 224 -416 208
FLAG -416 224 0
FLAG -352 96 Inlux
FLAG -48 192 0
FLAG -160 80 test
SYMBOL voltage -416 112 R0
WINDOW 3 -190 168 Left 2
WINDOW 123 0 0 Left 2
WINDOW 39 0 0 Left 2
SYMATTR Value 0
SYMATTR InstName Vlux
SYMBOL res -176 -64 R0
SYMATTR InstName R1
SYMATTR Value 5MEG
SYMBOL voltage -48 64 R0
WINDOW 123 0 0 Left 2
WINDOW 39 0 0 Left 2
SYMATTR InstName V1
SYMATTR Value 1
SYMBOL photoresistor -176 80 R0
SYMATTR InstName X1
TEXT -416 -8 Left 2 !;op
TEXT -416 32 Left 2 !.dc Vlux 1 100 1
TEXT -584 -32 Left 2 !.param Rdark 1MEG
TEXT -656 48 Left 2 !.step param expon .5 1 .05
