Version 4
SHEET 1 920 680
WIRE 112 128 -16 128
WIRE 256 128 112 128
WIRE 304 128 256 128
WIRE 352 128 304 128
WIRE -224 144 -288 144
WIRE -176 144 -224 144
WIRE -16 144 -16 128
WIRE 112 144 112 128
WIRE 256 144 256 128
WIRE -176 224 -288 224
WIRE -176 240 -176 224
WIRE -16 240 -16 224
WIRE 112 240 112 224
WIRE 112 240 -16 240
WIRE 256 240 256 208
WIRE 256 240 112 240
WIRE 336 240 256 240
WIRE 352 240 336 240
FLAG -224 144 Inlux
FLAG 304 128 R+
FLAG 336 240 R-
FLAG -176 240 0
SYMBOL res 96 128 R0
SYMATTR InstName Rdark
SYMATTR Value {Rdark}
SYMBOL bi -16 144 R0
WINDOW 3 2 120 Left 2
SYMATTR InstName B1
SYMATTR Value I=V(Inlux)**0.76/113k
SYMBOL cap 240 144 R0
SYMATTR InstName C1
SYMATTR Value 3.5p
SYMBOL res -192 128 R0
SYMATTR InstName Rignore
SYMATTR Value 10MEG
SYMBOL res -304 128 R0
SYMATTR InstName Rignore1
SYMATTR Value 10MEG
TEXT -16 56 Left 2 !.param Rdark=5MEG
