Version 4
SHEET 1 984 680
WIRE 576 -48 528 -48
WIRE 816 -48 768 -48
WIRE 528 0 528 -48
WIRE 768 0 768 -48
WIRE 576 48 576 32
WIRE 816 48 816 32
WIRE 400 128 384 128
WIRE 480 128 480 64
WIRE 640 128 624 128
WIRE 720 128 720 64
WIRE 208 192 144 192
WIRE 320 192 320 128
WIRE 320 192 208 192
WIRE 560 192 560 128
WIRE 560 192 320 192
WIRE 272 240 256 240
WIRE 320 240 272 240
WIRE 400 240 384 240
WIRE 480 240 480 128
WIRE 640 240 624 240
WIRE 720 240 720 128
WIRE 256 304 256 240
WIRE 560 304 560 240
WIRE 560 304 256 304
WIRE 144 336 144 192
WIRE 256 336 256 304
WIRE 144 432 144 416
WIRE 256 432 256 416
FLAG 256 432 0
FLAG 144 432 0
FLAG 816 48 0
FLAG 576 48 0
FLAG 208 192 Read0
FLAG 272 240 Read1
SYMBOL res 496 112 R90
WINDOW 0 0 56 VBottom 2
WINDOW 3 32 56 VTop 2
SYMATTR InstName R1
SYMATTR Value {R00}
SYMBOL diode 384 112 R90
WINDOW 0 0 32 VBottom 2
WINDOW 3 32 32 VTop 2
SYMATTR InstName D1
SYMBOL res 736 112 R90
WINDOW 0 0 56 VBottom 2
WINDOW 3 32 56 VTop 2
SYMATTR InstName R2
SYMATTR Value {R10}
SYMBOL diode 624 112 R90
WINDOW 0 0 32 VBottom 2
WINDOW 3 32 32 VTop 2
SYMATTR InstName D2
SYMBOL res 496 224 R90
WINDOW 0 0 56 VBottom 2
WINDOW 3 32 56 VTop 2
SYMATTR InstName R3
SYMATTR Value {R01}
SYMBOL diode 384 224 R90
WINDOW 0 0 32 VBottom 2
WINDOW 3 32 32 VTop 2
SYMATTR InstName D3
SYMBOL res 736 224 R90
WINDOW 0 0 56 VBottom 2
WINDOW 3 32 56 VTop 2
SYMATTR InstName R4
SYMATTR Value {R11}
SYMBOL diode 624 224 R90
WINDOW 0 0 32 VBottom 2
WINDOW 3 32 32 VTop 2
SYMATTR InstName D4
SYMBOL res 240 320 R0
SYMATTR InstName Rload1
SYMATTR Value 10k
SYMBOL res 128 320 R0
SYMATTR InstName Rload0
SYMATTR Value 10k
SYMBOL mysymbols\\Arduino_Output 736 -32 R180
SYMATTR InstName U1
SYMBOL mysymbols\\Arduino_Output 496 -32 R180
SYMATTR InstName U2
SYMBOL voltage 816 -64 R0
WINDOW 123 0 0 Left 2
WINDOW 39 0 0 Left 2
SYMATTR InstName V1
SYMATTR Value {V1}
SYMBOL voltage 576 -64 R0
WINDOW 123 0 0 Left 2
WINDOW 39 0 0 Left 2
SYMATTR InstName V0
SYMATTR Value {V0}
TEXT 48 -88 Left 2 !.include C:\\Program Files\\LTC\\LTspiceIV\\lib\\sub\\Arduino_Output.sub
TEXT 48 -40 Left 2 !.op
TEXT -448 16 Left 2 !*************************** Resistance Parameters*******************\n.param\n+R00={Rlight} R10={Rdark}\n+R01={Rdark} R11={Rlight}\n*************************** End Resistance Parameters*************
TEXT 48 -120 Left 2 !.param Rdark=1MEG Rlight=1
TEXT -448 168 Left 2 !*************************** Voltage Parameters*******************\n.param\n+V0={Rlight} V1={Rdark}\n*************************** End Voltage Parameters*************
