Version 4
SHEET 1 880 680
WIRE 176 -192 96 -192
WIRE 384 -192 288 -192
WIRE 592 -192 496 -192
WIRE 96 -176 96 -192
WIRE 288 -176 288 -192
WIRE 496 -176 496 -192
WIRE 96 -80 96 -96
WIRE 176 -80 176 -192
WIRE 288 -80 288 -96
WIRE 384 -80 384 -192
WIRE 496 -80 496 -96
WIRE 592 -80 592 -192
WIRE 240 80 240 -32
WIRE 240 80 160 80
WIRE 448 80 448 -32
WIRE 448 80 368 80
WIRE 656 80 656 -32
WIRE 656 80 576 80
WIRE -32 144 -80 144
WIRE 160 144 48 144
WIRE 368 144 160 144
WIRE 576 144 368 144
WIRE -128 208 -224 208
WIRE -224 224 -224 208
WIRE 240 224 240 80
WIRE 240 224 160 224
WIRE 448 224 448 80
WIRE 448 224 368 224
WIRE 656 224 656 80
WIRE 656 224 576 224
WIRE -32 288 -80 288
WIRE 160 288 48 288
WIRE 368 288 160 288
WIRE 576 288 368 288
WIRE -224 320 -224 304
WIRE -128 352 -224 352
WIRE -224 368 -224 352
WIRE 240 384 240 224
WIRE 240 384 160 384
WIRE 448 384 448 224
WIRE 448 384 368 384
WIRE 656 384 656 224
WIRE 656 384 576 384
WIRE -32 448 -80 448
WIRE 160 448 48 448
WIRE 368 448 160 448
WIRE 576 448 368 448
WIRE -224 464 -224 448
WIRE -128 512 -224 512
WIRE -224 528 -224 512
WIRE -224 624 -224 608
FLAG 96 -80 0
FLAG 288 -80 0
FLAG 496 -80 0
FLAG -224 320 0
FLAG -224 464 0
FLAG -224 624 0
SYMBOL LED 144 80 R0
SYMATTR InstName LED0
SYMATTR Value LED
SYMBOL mysymbols\\Arduino_Output -96 240 R0
SYMATTR InstName U1
SYMBOL mysymbols\\Arduino_Output -96 384 R0
SYMATTR InstName U2
SYMBOL mysymbols\\Arduino_Output -96 544 R0
SYMATTR InstName U3
SYMBOL res 64 128 R90
WINDOW 0 0 56 VBottom 2
WINDOW 3 32 56 VTop 2
SYMATTR InstName Rload0
SYMATTR Value {Rload}
SYMBOL res 64 272 R90
WINDOW 0 0 56 VBottom 2
WINDOW 3 32 56 VTop 2
SYMATTR InstName Rload1
SYMATTR Value {Rload}
SYMBOL res 64 432 R90
WINDOW 0 0 56 VBottom 2
WINDOW 3 32 56 VTop 2
SYMATTR InstName Rload2
SYMATTR Value {Rload}
SYMBOL mysymbols\\Arduino_Output 144 -48 R90
SYMATTR InstName U4
SYMBOL mysymbols\\Arduino_Output 352 -48 R90
SYMATTR InstName U5
SYMBOL mysymbols\\Arduino_Output 560 -48 R90
SYMATTR InstName U6
SYMBOL voltage 96 -192 R0
WINDOW 123 0 0 Left 2
WINDOW 39 0 0 Left 2
SYMATTR InstName Vx0
SYMATTR Value {Vx0}
SYMBOL voltage 288 -192 R0
WINDOW 123 0 0 Left 2
WINDOW 39 0 0 Left 2
SYMATTR InstName Vx1
SYMATTR Value {Vx1}
SYMBOL voltage 496 -192 R0
WINDOW 123 0 0 Left 2
WINDOW 39 0 0 Left 2
SYMATTR InstName Vx2
SYMATTR Value {Vx2}
SYMBOL voltage -224 208 R0
WINDOW 123 0 0 Left 2
WINDOW 39 0 0 Left 2
SYMATTR InstName Vy0
SYMATTR Value {Vy0}
SYMBOL voltage -224 352 R0
WINDOW 123 0 0 Left 2
WINDOW 39 0 0 Left 2
SYMATTR InstName Vy1
SYMATTR Value {Vy1}
SYMBOL voltage -224 512 R0
WINDOW 123 0 0 Left 2
WINDOW 39 0 0 Left 2
SYMATTR InstName Vy2
SYMATTR Value {Vy2}
SYMBOL LED 352 80 R0
SYMATTR InstName LED1
SYMATTR Value LED
SYMBOL LED 560 80 R0
SYMATTR InstName LED2
SYMATTR Value LED
SYMBOL LED 144 224 R0
SYMATTR InstName LED3
SYMATTR Value LED
SYMBOL LED 352 224 R0
SYMATTR InstName LED4
SYMATTR Value LED
SYMBOL LED 560 224 R0
SYMATTR InstName LED5
SYMATTR Value LED
SYMBOL LED 144 384 R0
SYMATTR InstName LED6
SYMATTR Value LED
SYMBOL LED 352 384 R0
SYMATTR InstName LED7
SYMATTR Value LED
SYMBOL LED 560 384 R0
SYMATTR InstName LED8
SYMATTR Value LED
TEXT -784 -152 Left 2 !***********************************Vxy Parameters***********************************\n.param\n+Vx0=5 Vx1=-5 Vx2=-5\n+Vy0=-5\n+Vy1=5\n+Vy2=5\n*********************************** End Vxy Parameters*****************************
TEXT -768 -216 Left 2 !.param Rload=75
TEXT -768 64 Left 2 !.op
TEXT -768 -248 Left 2 !.include C:\\Program Files\\LTC\\LTspiceIV\\lib\\sub\\Arduino_Output.sub
TEXT -752 136 Left 2 !.MODEL LED D\n+ IS=4E-18\n+ N=3.4\n+ RS=5\n+ EG=3.8\n+ XTI=3
