Version 4
SHEET 1 880 680
WIRE 176 128 160 128
WIRE 176 144 160 144
WIRE 176 160 160 160
WIRE 176 176 160 176
WIRE 176 192 160 192
WIRE 176 208 160 208
WIRE 176 224 160 224
WIRE 176 240 160 240
WIRE 176 256 160 256
FLAG 160 128 P1
FLAG 176 144 P1
FLAG 160 160 P2
FLAG 176 176 P3
FLAG 160 192 P4
FLAG 176 208 P5
FLAG 160 224 P6
FLAG 176 240 P7
FLAG 160 256 P8
