Version 4
SHEET 1 2528 868
WIRE 320 -576 -768 -576
WIRE 0 -480 -704 -480
WIRE 320 -480 320 -576
WIRE 320 -480 288 -480
WIRE 0 -416 -640 -416
WIRE 320 -416 320 -480
WIRE 320 -416 288 -416
WIRE 0 -352 -608 -352
WIRE 1152 -352 416 -352
WIRE 864 -320 480 -320
WIRE 320 -288 288 -288
WIRE 576 -256 512 -256
WIRE 576 -192 576 -256
WIRE 864 -192 864 -320
WIRE 1152 -192 1152 -352
WIRE 416 -160 416 -352
WIRE 416 -160 288 -160
WIRE 480 -96 480 -320
WIRE 480 -96 288 -96
WIRE -64 -32 -480 -32
WIRE 0 -32 -64 -32
WIRE 512 -32 512 -256
WIRE 512 -32 288 -32
WIRE 576 16 576 -176
WIRE 864 16 864 -192
WIRE 1152 16 1152 -192
WIRE -64 32 -64 -32
WIRE 320 32 320 -288
WIRE 320 32 -64 32
WIRE -480 64 -480 -32
WIRE -192 80 -256 80
WIRE -128 80 -192 80
WIRE 432 80 432 16
WIRE 432 80 -128 80
WIRE 720 80 720 16
WIRE 720 80 432 80
WIRE 1008 80 1008 16
WIRE 1008 80 720 80
WIRE -608 112 -608 -352
WIRE -480 112 -608 112
WIRE -640 160 -640 -416
WIRE -480 160 -640 160
WIRE -704 208 -704 -480
WIRE -480 208 -704 208
WIRE -192 224 -192 80
WIRE 576 288 576 16
WIRE 864 288 864 16
WIRE 1152 288 1152 16
WIRE -256 304 -256 80
WIRE -256 304 -480 304
WIRE -128 352 -480 352
WIRE -64 352 -128 352
WIRE 432 352 432 288
WIRE 432 352 -64 352
WIRE 720 352 720 288
WIRE 720 352 432 352
WIRE 1008 352 1008 288
WIRE 1008 352 720 352
WIRE 80 400 -480 400
WIRE -320 448 -480 448
WIRE -192 448 -192 304
WIRE -192 448 -320 448
WIRE 576 480 576 288
WIRE 864 480 864 288
WIRE 1152 480 1152 288
WIRE -128 496 -128 352
WIRE -768 512 -768 -576
WIRE -320 512 -320 448
WIRE -320 512 -768 512
WIRE -320 592 -320 512
WIRE -128 592 -128 576
WIRE -128 592 -320 592
WIRE -112 592 -128 592
WIRE 0 608 -64 608
WIRE 80 608 80 400
WIRE 80 608 0 608
WIRE 432 608 432 480
WIRE 432 608 80 608
WIRE 720 608 720 480
WIRE 720 608 432 608
WIRE 1008 608 1008 480
WIRE 1008 608 720 608
WIRE -64 752 -64 608
WIRE -112 848 -112 592
WIRE -64 848 -64 832
WIRE -64 848 -112 848
FLAG -128 80 Read0
FLAG -64 352 Read1
FLAG 0 608 Read2
FLAG 576 -192 Vcon0
FLAG 864 -192 Vcon1
FLAG 1152 -192 Vcon2
SYMBOL res -208 208 R0
SYMATTR InstName Rload0
SYMATTR Value 100k
SYMBOL diode 496 32 M270
WINDOW 0 32 32 VTop 2
WINDOW 3 0 32 VBottom 2
SYMATTR InstName DI0
SYMBOL diode 784 32 M270
WINDOW 0 32 32 VTop 2
WINDOW 3 0 32 VBottom 2
SYMATTR InstName DI1
SYMBOL diode 1072 32 M270
WINDOW 0 32 32 VTop 2
WINDOW 3 0 32 VBottom 2
SYMATTR InstName DI2
SYMBOL res -144 480 R0
SYMATTR InstName Rload1
SYMATTR Value 100k
SYMBOL res -80 736 R0
SYMATTR InstName Rload2
SYMATTR Value 100k
SYMBOL res 592 0 R90
WINDOW 0 0 56 VBottom 2
WINDOW 3 32 56 VTop 2
SYMATTR InstName R00
SYMBOL res 880 0 R90
WINDOW 0 0 56 VBottom 2
WINDOW 3 32 56 VTop 2
SYMATTR InstName R10
SYMBOL res 1168 0 R90
WINDOW 0 0 56 VBottom 2
WINDOW 3 32 56 VTop 2
SYMATTR InstName R20
SYMBOL diode 496 304 M270
WINDOW 0 32 32 VTop 2
WINDOW 3 0 32 VBottom 2
SYMATTR InstName DI3
SYMBOL diode 784 304 M270
WINDOW 0 32 32 VTop 2
WINDOW 3 0 32 VBottom 2
SYMATTR InstName DI4
SYMBOL diode 1072 304 M270
WINDOW 0 32 32 VTop 2
WINDOW 3 0 32 VBottom 2
SYMATTR InstName DI5
SYMBOL res 592 272 R90
WINDOW 0 0 56 VBottom 2
WINDOW 3 32 56 VTop 2
SYMATTR InstName R01
SYMBOL res 880 272 R90
WINDOW 0 0 56 VBottom 2
WINDOW 3 32 56 VTop 2
SYMATTR InstName R11
SYMBOL res 1168 272 R90
WINDOW 0 0 56 VBottom 2
WINDOW 3 32 56 VTop 2
SYMATTR InstName R21
SYMBOL diode 496 496 M270
WINDOW 0 32 32 VTop 2
WINDOW 3 0 32 VBottom 2
SYMATTR InstName DI6
SYMBOL diode 784 496 M270
WINDOW 0 32 32 VTop 2
WINDOW 3 0 32 VBottom 2
SYMATTR InstName DI7
SYMBOL diode 1072 496 M270
WINDOW 0 32 32 VTop 2
WINDOW 3 0 32 VBottom 2
SYMATTR InstName DI8
SYMBOL res 592 464 R90
WINDOW 0 0 56 VBottom 2
WINDOW 3 32 56 VTop 2
SYMATTR InstName R02
SYMBOL res 880 464 R90
WINDOW 0 0 56 VBottom 2
WINDOW 3 32 56 VTop 2
SYMATTR InstName R12
SYMBOL res 1168 464 R90
WINDOW 0 0 56 VBottom 2
WINDOW 3 32 56 VTop 2
SYMATTR InstName R22
SYMBOL Misc\\DIP16 144 -128 R180
SYMATTR InstName CBT3251
SYMBOL Header_9_Pin -544 112 R0
WINDOW 0 -32 -91 Left 2
SYMATTR InstName Header1
