Version 4
SHEET 1 2528 868
WIRE 624 -336 576 -336
WIRE 672 -336 624 -336
WIRE 672 -240 672 -256
WIRE 464 -48 432 -48
WIRE 432 -32 432 -48
WIRE 576 16 576 -336
WIRE -128 80 -192 80
WIRE 432 80 432 16
WIRE 432 80 -128 80
WIRE -192 224 -192 80
WIRE -192 320 -192 304
FLAG -192 320 0
FLAG 672 -240 0
FLAG -128 80 Read0
FLAG 624 -336 Vcon0
FLAG 432 -32 0
SYMBOL res -208 208 R0
SYMATTR InstName Rload0
SYMATTR Value 100k
SYMBOL voltage 672 -352 R0
WINDOW 123 0 0 Left 2
WINDOW 39 0 0 Left 2
SYMATTR InstName Vcon0
SYMATTR Value {Vcon0}
SYMBOL diode 496 32 M270
WINDOW 0 32 32 VTop 2
WINDOW 3 0 32 VBottom 2
SYMATTR InstName DI0
SYMATTR Value 1N914
SYMBOL voltage 560 -48 M270
WINDOW 123 0 0 Left 2
WINDOW 39 0 0 Left 2
SYMATTR InstName Vl0
SYMATTR Value {lux0_0}
SYMBOL photoresistor 592 0 R90
SYMATTR InstName X0
TEXT -408 -512 Left 2 !.op
TEXT -408 -472 Left 2 !*********************************** Lux Parameters***********************************\n.param\n+lux0_0=22.6\n*********************************** End Lux Parameters*****************************
TEXT -400 -592 Left 2 !.param Rdark=1MEG Rlight=1
TEXT 816 -560 Left 2 !****************************** Voltage Parameters*******************************\n.param\n+vcon0=5\n*************************** End Voltage Parameters***************************
TEXT -336 -512 Left 2 !;dc Vl0 10 20 1
